89983570
OCL MolfileCreator  2D

106114  0  0  1  0  0  0  0  0999 V2000
   44.5612  -10.7920    0.0000 O   0  0  0  0  0  0  0  0  0  0  0  0
   48.3248  -10.3896    0.0000 O   0  0  0  0  0  0  0  0  0  0  0  0
   50.4267   -7.5658    0.0000 O   0  0  0  0  0  0  0  0  0  0  0  0
    5.9302   10.7920    0.0000 O   0  0  0  0  0  0  0  0  0  0  0  0
    7.8242    9.2180    0.0000 O   0  0  0  0  0  0  0  0  0  0  0  0
    3.3162    9.2227    0.0000 O   0  0  0  0  0  0  0  0  0  0  0  0
    7.7002   10.7678    0.0000 O   0  0  0  0  0  0  0  0  0  0  0  0
   38.1319   -7.5881    0.0000 O   0  0  0  0  0  0  0  0  0  0  0  0
    9.3141    8.3347    0.0000 O   0  0  0  0  0  0  0  0  0  0  0  0
    3.7760    1.5984    0.0000 O   0  0  0  0  0  0  0  0  0  0  0  0
    7.8042    7.4861    0.0000 O   0  0  0  0  0  0  0  0  0  0  0  0
   36.1521   -5.8330    0.0000 O   0  0  0  0  0  0  0  0  0  0  0  0
   33.6622   -4.9381    0.0000 O   0  0  0  0  0  0  0  0  0  0  0  0
   13.7837    5.6848    0.0000 O   0  0  0  0  0  0  0  0  0  0  0  0
   17.2935    6.5103    0.0000 O   0  0  0  0  0  0  0  0  0  0  0  0
   18.2734    4.7668    0.0000 O   0  0  0  0  0  0  0  0  0  0  0  0
   31.6824   -3.1831    0.0000 O   0  0  0  0  0  0  0  0  0  0  0  0
   20.2733    4.7436    0.0000 O   0  0  0  0  0  0  0  0  0  0  0  0
   29.1926   -2.2882    0.0000 O   0  0  0  0  0  0  0  0  0  0  0  0
   22.7431    2.1168    0.0000 O   0  0  0  0  0  0  0  0  0  0  0  0
   24.7229    0.3618    0.0000 O   0  0  0  0  0  0  0  0  0  0  0  0
   27.2127   -0.5331    0.0000 O   0  0  0  0  0  0  0  0  0  0  0  0
   49.1521   -8.8113    0.0000 N   0  0  0  0  0  0  0  0  0  0  0  0
   43.8750   -9.2016    0.0000 N   0  0  0  0  0  0  0  0  0  0  0  0
    4.1822    7.7227    0.0000 N   0  0  0  0  0  0  0  0  0  0  0  0
   42.1662   -8.0008    0.0000 N   0  0  0  0  0  0  0  0  0  0  0  0
   40.6217   -8.4829    0.0000 N   0  0  0  0  0  0  0  0  0  0  0  0
   41.2188   -7.6808    0.0000 N   0  0  0  0  0  0  0  0  0  0  0  0
    5.4598    5.4222    0.0000 N   0  0  0  0  0  0  0  0  0  0  0  0
   13.8038    7.4167    0.0000 N   0  0  0  0  0  0  0  0  0  0  0  0
   15.7836    5.6616    0.0000 N   0  0  0  0  0  0  0  0  0  0  0  0
   18.8235    9.0908    0.0000 N   0  0  0  0  0  0  0  0  0  0  0  0
   20.2533    3.0117    0.0000 N   0  0  0  0  0  0  0  0  0  0  0  0
   47.4318   -8.6103    0.0000 C   0  0  0  0  0  0  0  0  0  0  0  0
   45.5954   -9.4026    0.0000 C   0  0  0  0  0  0  0  0  0  0  0  0
   46.6296   -8.0132    0.0000 C   0  0  0  0  0  0  0  0  0  0  0  0
   47.3157   -9.6036    0.0000 C   0  0  0  0  0  0  0  0  0  0  0  0
   45.7114   -8.4094    0.0000 C   0  0  0  0  0  0  0  0  0  0  0  0
   46.3975   -9.9997    0.0000 C   0  0  0  0  0  0  0  0  0  0  0  0
   48.3499   -8.2142    0.0000 C   0  0  0  0  0  0  0  0  0  0  0  0
   44.6772   -9.7987    0.0000 C   0  0  0  0  0  0  0  0  0  0  0  0
   49.1405   -9.8112    0.0000 C   0  0  0  0  0  0  0  0  0  0  0  0
   50.1067   -8.5133    0.0000 C   0  0  0  0  0  0  0  0  0  0  0  0
   42.9568   -9.5978    0.0000 C   0  0  0  0  0  0  0  0  0  0  0  0
   50.0880  -10.1312    0.0000 C   0  0  0  0  0  0  0  0  0  0  0  0
   50.6851   -9.3290    0.0000 C   0  0  0  0  0  0  0  0  0  0  0  0
   42.1547   -9.0007    0.0000 C   0  0  0  0  0  0  0  0  0  0  0  0
    6.8243    9.2296    0.0000 C   0  0  0  0  0  0  0  0  0  0  0  0
   41.2001   -9.2987    0.0000 C   0  0  0  0  0  0  0  0  0  0  0  0
    5.9143    8.7227    0.0000 C   0  0  0  0  0  0  0  0  0  0  0  0
    5.0482    7.2227    0.0000 C   0  0  0  0  0  0  0  0  0  0  0  0
    3.4452    7.0556    0.0000 C   0  0  0  0  0  0  0  0  0  0  0  0
    3.8503    6.1479    0.0000 C   0  0  0  0  0  0  0  0  0  0  0  0
    5.0482    9.2227    0.0000 C   0  0  0  0  0  0  0  0  0  0  0  0
    4.8390    6.2509    0.0000 C   0  0  0  0  0  0  0  0  0  0  0  0
    5.9143    7.7227    0.0000 C   0  0  0  0  0  0  0  0  0  0  0  0
    4.1822    8.7227    0.0000 C   0  0  0  0  0  0  0  0  0  0  0  0
    3.4138    5.2089    0.0000 C   0  0  0  0  0  0  0  0  0  0  0  0
    7.3142    8.3578    0.0000 C   0  0  0  0  0  0  0  0  0  0  0  0
    5.0322   10.2642    0.0000 C   0  0  0  0  0  0  0  0  0  0  0  0
    6.8323   10.2712    0.0000 C   0  0  0  0  0  0  0  0  0  0  0  0
    4.0152    4.3660    0.0000 C   0  0  0  0  0  0  0  0  0  0  0  0
    2.4181    5.1167    0.0000 C   0  0  0  0  0  0  0  0  0  0  0  0
    5.0451    4.4734    0.0000 C   0  0  0  0  0  0  0  0  0  0  0  0
   39.6218   -8.4714    0.0000 C   0  0  0  0  0  0  0  0  0  0  0  0
    6.8042    7.4976    0.0000 C   0  0  0  0  0  0  0  0  0  0  0  0
    3.5606    3.3880    0.0000 C   0  0  0  0  0  0  0  0  0  0  0  0
    2.0000    4.2083    0.0000 C   0  0  0  0  0  0  0  0  0  0  0  0
    5.6917    3.6101    0.0000 C   0  0  0  0  0  0  0  0  0  0  0  0
   39.1318   -7.5996    0.0000 C   0  0  0  0  0  0  0  0  0  0  0  0
    4.1870    2.5100    0.0000 C   0  0  0  0  0  0  0  0  0  0  0  0
    8.3142    8.3463    0.0000 C   0  0  0  0  0  0  0  0  0  0  0  0
    5.2598    2.6218    0.0000 C   0  0  0  0  0  0  0  0  0  0  0  0
   37.6419   -6.7163    0.0000 C   0  0  0  0  0  0  0  0  0  0  0  0
    9.8040    7.4630    0.0000 C   0  0  0  0  0  0  0  0  0  0  0  0
   36.6420   -6.7047    0.0000 C   0  0  0  0  0  0  0  0  0  0  0  0
   10.8040    7.4514    0.0000 C   0  0  0  0  0  0  0  0  0  0  0  0
   11.3139    8.3116    0.0000 C   0  0  0  0  0  0  0  0  0  0  0  0
   11.2939    6.5796    0.0000 C   0  0  0  0  0  0  0  0  0  0  0  0
   12.3139    8.3000    0.0000 C   0  0  0  0  0  0  0  0  0  0  0  0
   12.2939    6.5681    0.0000 C   0  0  0  0  0  0  0  0  0  0  0  0
   12.8038    7.4283    0.0000 C   0  0  0  0  0  0  0  0  0  0  0  0
   35.1521   -5.8214    0.0000 C   0  0  0  0  0  0  0  0  0  0  0  0
   15.2937    6.5334    0.0000 C   0  0  0  0  0  0  0  0  0  0  0  0
   15.8036    7.3936    0.0000 C   0  0  0  0  0  0  0  0  0  0  0  0
   14.2937    6.5450    0.0000 C   0  0  0  0  0  0  0  0  0  0  0  0
   34.6622   -4.9497    0.0000 C   0  0  0  0  0  0  0  0  0  0  0  0
   16.8036    7.3820    0.0000 C   0  0  0  0  0  0  0  0  0  0  0  0
   17.3135    8.2422    0.0000 C   0  0  0  0  0  0  0  0  0  0  0  0
   18.3135    8.2306    0.0000 C   0  0  0  0  0  0  0  0  0  0  0  0
   16.7835    5.6501    0.0000 C   0  0  0  0  0  0  0  0  0  0  0  0
   33.1723   -4.0664    0.0000 C   0  0  0  0  0  0  0  0  0  0  0  0
   17.2735    4.7783    0.0000 C   0  0  0  0  0  0  0  0  0  0  0  0
   32.1723   -4.0548    0.0000 C   0  0  0  0  0  0  0  0  0  0  0  0
   18.7634    3.8950    0.0000 C   0  0  0  0  0  0  0  0  0  0  0  0
   19.7633    3.8835    0.0000 C   0  0  0  0  0  0  0  0  0  0  0  0
   30.6825   -3.1715    0.0000 C   0  0  0  0  0  0  0  0  0  0  0  0
   30.1925   -2.2997    0.0000 C   0  0  0  0  0  0  0  0  0  0  0  0
   21.2532    3.0001    0.0000 C   0  0  0  0  0  0  0  0  0  0  0  0
   21.7431    2.1284    0.0000 C   0  0  0  0  0  0  0  0  0  0  0  0
   28.7026   -1.4164    0.0000 C   0  0  0  0  0  0  0  0  0  0  0  0
   23.2330    1.2451    0.0000 C   0  0  0  0  0  0  0  0  0  0  0  0
   27.7027   -1.4049    0.0000 C   0  0  0  0  0  0  0  0  0  0  0  0
   24.2330    1.2335    0.0000 C   0  0  0  0  0  0  0  0  0  0  0  0
   25.7229    0.3502    0.0000 C   0  0  0  0  0  0  0  0  0  0  0  0
   26.2128   -0.5216    0.0000 C   0  0  0  0  0  0  0  0  0  0  0  0
  1 41  2  0  0  0  0
  2 42  2  0  0  0  0
  3 43  2  0  0  0  0
  4 60  1  0  0  0  0
  4 61  1  0  0  0  0
 48  5  1  1  0  0  0
  5 72  1  0  0  0  0
  6 57  2  0  0  0  0
  7 61  2  0  0  0  0
  8 70  1  0  0  0  0
  8 74  1  0  0  0  0
  9 72  1  0  0  0  0
  9 75  1  0  0  0  0
 10 71  1  0  0  0  0
105106  1  0  0  0  0
 11 72  2  0  0  0  0
 12 76  1  0  0  0  0
 12 83  1  0  0  0  0
 13 87  1  0  0  0  0
 13 92  1  0  0  0  0
 14 86  2  0  0  0  0
 15 91  2  0  0  0  0
 16 93  1  0  0  0  0
 16 95  1  0  0  0  0
 17 94  1  0  0  0  0
 17 97  1  0  0  0  0
 18 96  2  0  0  0  0
 19 98  1  0  0  0  0
 19101  1  0  0  0  0
 20100  1  0  0  0  0
 20102  1  0  0  0  0
 21104  1  0  0  0  0
 21105  1  0  0  0  0
 22103  1  0  0  0  0
 22106  1  0  0  0  0
 23 40  1  0  0  0  0
 23 42  1  0  0  0  0
 23 43  1  0  0  0  0
 24 41  1  0  0  0  0
 24 44  1  0  0  0  0
102104  1  0  0  0  0
 25 51  1  0  0  0  0
 25 52  1  0  0  0  0
 25 57  1  0  0  0  0
 26 28  2  0  0  0  0
 26 47  1  0  0  0  0
 27 28  1  0  0  0  0
 27 49  1  0  0  0  0
 27 65  1  0  0  0  0
 29 55  2  0  0  0  0
 29 64  1  0  0  0  0
 30 82  1  0  0  0  0
 30 86  1  0  0  0  0
101103  1  0  0  0  0
 84 31  1  6  0  0  0
 31 91  1  0  0  0  0
 99100  1  0  0  0  0
 32 90  1  0  0  0  0
 97 98  1  0  0  0  0
 95 96  1  0  0  0  0
 33 96  1  0  0  0  0
 33 99  1  0  0  0  0
 92 94  1  0  0  0  0
 34 36  1  0  0  0  0
 34 37  1  0  0  0  0
 34 40  1  0  0  0  0
 91 93  1  0  0  0  0
 35 38  1  0  0  0  0
 35 39  1  0  0  0  0
 35 41  1  0  0  0  0
 89 90  1  0  0  0  0
 36 38  1  0  0  0  0
 88 89  1  0  0  0  0
 85 88  1  0  0  0  0
 37 39  1  0  0  0  0
 84 86  1  0  0  0  0
 84 85  1  0  0  0  0
 83 87  1  0  0  0  0
 81 82  1  0  0  0  0
 80 82  2  0  0  0  0
 79 81  2  0  0  0  0
 78 80  1  0  0  0  0
 77 79  1  0  0  0  0
 42 45  1  0  0  0  0
 43 46  1  0  0  0  0
 44 47  1  0  0  0  0
 77 78  2  0  0  0  0
 75 77  1  0  0  0  0
 45 46  2  0  0  0  0
 74 76  1  0  0  0  0
 71 73  1  0  0  0  0
 47 49  2  0  0  0  0
 48 50  1  0  0  0  0
 48 59  1  0  0  0  0
 48 61  1  0  0  0  0
 69 73  2  0  0  0  0
 50 54  2  0  0  0  0
 50 56  1  0  0  0  0
 51 55  1  0  0  0  0
 51 56  2  0  0  0  0
 52 53  1  0  0  0  0
 67 71  2  0  0  0  0
 65 70  1  0  0  0  0
 53 55  1  0  0  0  0
 53 58  2  0  0  0  0
 54 57  1  0  0  0  0
 54 60  1  0  0  0  0
 64 69  1  0  0  0  0
 58 62  1  0  0  0  0
 58 63  1  0  0  0  0
 59 66  1  0  0  0  0
 63 68  1  0  0  0  0
 62 67  1  0  0  0  0
 62 64  2  0  0  0  0
M  END
