92131096
OCL MolfileCreator  2D

 74 80  0  0  1  0  0  0  0  0999 V2000
   15.7316    2.7772    0.0000 Cl  0  0  0  0  0  0  0  0  0  0  0  0
    8.8148   -2.9202    0.0000 S   0  0  0  0  0  0  0  0  0  0  0  0
   11.2722    4.1908    0.0000 O   0  0  0  0  0  0  0  0  0  0  0  0
   11.1705    2.6878    0.0000 O   0  0  0  0  0  0  0  0  0  0  0  0
    9.9889    6.9322    0.0000 O   0  0  0  0  0  0  0  0  0  0  0  0
   11.7210    8.9322    0.0000 O   0  0  0  0  0  0  0  0  0  0  0  0
   13.0096    9.3386    0.0000 O   0  0  0  0  0  0  0  0  0  0  0  0
   13.8965    1.4352    0.0000 O   0  0  0  0  0  0  0  0  0  0  0  0
    9.1229    8.4322    0.0000 O   0  0  0  0  0  0  0  0  0  0  0  0
   12.1011    1.2270    0.0000 O   0  0  0  0  0  0  0  0  0  0  0  0
    8.6839    0.0769    0.0000 O   0  0  0  0  0  0  0  0  0  0  0  0
    2.2009   -7.0761    0.0000 O   0  0  0  0  0  0  0  0  0  0  0  0
   16.8425    3.5527    0.0000 O   0  0  0  0  0  0  0  0  0  0  0  0
    3.6452   -8.0321    0.0000 O   0  0  0  0  0  0  0  0  0  0  0  0
    6.7906   -2.1229    0.0000 O   0  0  0  0  0  0  0  0  0  0  0  0
    6.5757   -5.6365    0.0000 O   0  0  0  0  0  0  0  0  0  0  0  0
    2.9628   -9.1139    0.0000 O   0  0  0  0  0  0  0  0  0  0  0  0
    0.0274   -7.1710    0.0000 O   0  0  0  0  0  0  0  0  0  0  0  0
   10.8549    8.4322    0.0000 N   0  0  0  0  0  0  0  0  0  0  0  0
   14.2210    3.0662    0.0000 N   0  0  0  0  0  0  0  0  0  0  0  0
   10.4143    0.1524    0.0000 N   0  0  0  0  0  0  0  0  0  0  0  0
    6.4049   -3.8627    0.0000 N   0  0  0  0  0  0  0  0  0  0  0  0
    1.6489   -7.9100    0.0000 N   0  0  0  0  0  0  0  0  0  0  0  0
   12.2727    4.1911    0.0000 C   0  0  0  0  0  0  0  0  0  0  0  0
   11.7727    5.0571    0.0000 C   0  0  0  0  0  0  0  0  0  0  0  0
   10.8549    5.4322    0.0000 C   0  0  0  0  0  0  0  0  0  0  0  0
   12.0139    3.2252    0.0000 C   0  0  0  0  0  0  0  0  0  0  0  0
   10.8549    6.4322    0.0000 C   0  0  0  0  0  0  0  0  0  0  0  0
   13.2641    4.3216    0.0000 C   0  0  0  0  0  0  0  0  0  0  0  0
    9.9108    5.1026    0.0000 C   0  0  0  0  0  0  0  0  0  0  0  0
   11.7210    6.9322    0.0000 C   0  0  0  0  0  0  0  0  0  0  0  0
   12.5139    2.3591    0.0000 C   0  0  0  0  0  0  0  0  0  0  0  0
   11.7210    7.9322    0.0000 C   0  0  0  0  0  0  0  0  0  0  0  0
   12.5870    8.4322    0.0000 C   0  0  0  0  0  0  0  0  0  0  0  0
   13.5139    2.3591    0.0000 C   0  0  0  0  0  0  0  0  0  0  0  0
    9.9889    7.9322    0.0000 C   0  0  0  0  0  0  0  0  0  0  0  0
   11.2141    1.6888    0.0000 C   0  0  0  0  0  0  0  0  0  0  0  0
   10.3707    1.1515    0.0000 C   0  0  0  0  0  0  0  0  0  0  0  0
   13.4530    7.9322    0.0000 C   0  0  0  0  0  0  0  0  0  0  0  0
   14.2210    4.0662    0.0000 C   0  0  0  0  0  0  0  0  0  0  0  0
   14.6828    2.1792    0.0000 C   0  0  0  0  0  0  0  0  0  0  0  0
    9.4837    1.6132    0.0000 C   0  0  0  0  0  0  0  0  0  0  0  0
    4.8548   -4.6355    0.0000 C   0  0  0  0  0  0  0  0  0  0  0  0
   14.4530    7.9322    0.0000 C   0  0  0  0  0  0  0  0  0  0  0  0
   14.0058    9.4257    0.0000 C   0  0  0  0  0  0  0  0  0  0  0  0
    5.3010   -5.5304    0.0000 C   0  0  0  0  0  0  0  0  0  0  0  0
    3.8567   -4.5745    0.0000 C   0  0  0  0  0  0  0  0  0  0  0  0
    3.7509   -6.3033    0.0000 C   0  0  0  0  0  0  0  0  0  0  0  0
    4.7491   -6.3643    0.0000 C   0  0  0  0  0  0  0  0  0  0  0  0
    3.3047   -5.4083    0.0000 C   0  0  0  0  0  0  0  0  0  0  0  0
    5.4067   -3.8016    0.0000 C   0  0  0  0  0  0  0  0  0  0  0  0
   15.0870    4.5662    0.0000 C   0  0  0  0  0  0  0  0  0  0  0  0
   15.0948    3.5482    0.0000 C   0  0  0  0  0  0  0  0  0  0  0  0
    9.5709   -0.3849    0.0000 C   0  0  0  0  0  0  0  0  0  0  0  0
   11.3013   -0.3093    0.0000 C   0  0  0  0  0  0  0  0  0  0  0  0
   14.9530    7.0662    0.0000 C   0  0  0  0  0  0  0  0  0  0  0  0
   15.0870    5.5662    0.0000 C   0  0  0  0  0  0  0  0  0  0  0  0
    3.1990   -7.1372    0.0000 C   0  0  0  0  0  0  0  0  0  0  0  0
    9.6145   -1.3839    0.0000 C   0  0  0  0  0  0  0  0  0  0  0  0
   15.9530    6.0662    0.0000 C   0  0  0  0  0  0  0  0  0  0  0  0
   15.9530    7.0662    0.0000 C   0  0  0  0  0  0  0  0  0  0  0  0
    7.9714   -3.4576    0.0000 C   0  0  0  0  0  0  0  0  0  0  0  0
   15.9764    4.0527    0.0000 C   0  0  0  0  0  0  0  0  0  0  0  0
    7.0410   -3.0910    0.0000 C   0  0  0  0  0  0  0  0  0  0  0  0
    7.9103   -4.4557    0.0000 C   0  0  0  0  0  0  0  0  0  0  0  0
    6.9422   -4.7061    0.0000 C   0  0  0  0  0  0  0  0  0  0  0  0
   15.9725    5.0685    0.0000 C   0  0  0  0  0  0  0  0  0  0  0  0
    8.7711   -1.9212    0.0000 C   0  0  0  0  0  0  0  0  0  0  0  0
   16.6601    7.7733    0.0000 C   0  0  0  0  0  0  0  0  0  0  0  0
   17.7085    4.0527    0.0000 C   0  0  0  0  0  0  0  0  0  0  0  0
    1.9991   -8.8467    0.0000 C   0  0  0  0  0  0  0  0  0  0  0  0
    0.6499   -7.9536    0.0000 C   0  0  0  0  0  0  0  0  0  0  0  0
    1.2165   -9.4692    0.0000 C   0  0  0  0  0  0  0  0  0  0  0  0
    0.3826   -8.9172    0.0000 C   0  0  0  0  0  0  0  0  0  0  0  0
  1 53  1  0  0  0  0
  2 62  1  0  0  0  0
  2 68  1  0  0  0  0
  3 24  1  0  0  0  0
 25  3  1  6  0  0  0
 27  4  1  6  0  0  0
  4 37  1  0  0  0  0
 28  5  1  1  0  0  0
  5 36  1  0  0  0  0
 33  6  1  6  0  0  0
 73 74  1  0  0  0  0
 34  7  1  6  0  0  0
  7 45  1  0  0  0  0
  8 35  2  0  0  0  0
  9 36  2  0  0  0  0
 10 37  2  0  0  0  0
 11 54  2  0  0  0  0
 12 23  1  0  0  0  0
 12 58  1  0  0  0  0
 13 63  1  0  0  0  0
 13 70  1  0  0  0  0
 14 58  2  0  0  0  0
 15 64  2  0  0  0  0
 16 66  2  0  0  0  0
 17 71  2  0  0  0  0
 18 72  2  0  0  0  0
 19 33  1  0  0  0  0
 19 36  1  0  0  0  0
 72 74  1  0  0  0  0
 20 35  1  0  0  0  0
 20 40  1  0  0  0  0
 20 41  1  0  0  0  0
 38 21  1  1  0  0  0
 21 54  1  0  0  0  0
 21 55  1  0  0  0  0
 22 51  1  0  0  0  0
 22 64  1  0  0  0  0
 22 66  1  0  0  0  0
 23 71  1  0  0  0  0
 23 72  1  0  0  0  0
 24 25  1  0  0  0  0
 24 27  1  0  0  0  0
 24 29  1  1  0  0  0
 25 26  1  0  0  0  0
 71 73  1  0  0  0  0
 26 28  1  0  0  0  0
 26 30  1  6  0  0  0
 65 66  1  0  0  0  0
 27 32  1  0  0  0  0
 63 67  2  0  0  0  0
 28 31  1  0  0  0  0
 62 65  1  0  0  0  0
 62 64  1  0  0  0  0
 61 69  1  0  0  0  0
 60 61  1  0  0  0  0
 59 68  1  0  0  0  0
 57 67  1  0  0  0  0
 57 60  1  0  0  0  0
 31 33  1  0  0  0  0
 56 61  2  0  0  0  0
 54 59  1  0  0  0  0
 32 35  1  0  0  0  0
 53 63  1  0  0  0  0
 52 57  2  0  0  0  0
 33 34  1  0  0  0  0
 34 39  1  0  0  0  0
 48 58  1  0  0  0  0
 37 38  1  0  0  0  0
 38 42  1  0  0  0  0
 48 50  1  0  0  0  0
 39 44  2  0  0  0  0
 48 49  1  0  0  0  0
 40 52  1  0  0  0  0
 40 53  2  0  0  0  0
 47 50  1  0  0  0  0
 46 49  1  0  0  0  0
 44 56  1  0  0  0  0
 43 51  1  0  0  0  0
 43 47  1  0  0  0  0
 43 46  1  0  0  0  0
M  END
