Mertansine (DM1), CHEBI:82755
  Mrv0541 08211411412D

 52 55  0  0  1  0            999 V2000
    3.1764   -4.0349    0.0000 C   0  0  1  0  0  0  0  0  0  0  0  0
    3.1764   -6.5098    0.0000 C   0  0  2  0  0  0  0  0  0  0  0  0
    2.4504   -6.9058    0.0000 N   0  0  0  0  0  0  0  0  0  0  0  0
    6.7403   -4.4309    0.0000 C   0  0  0  0  0  0  0  0  0  0  0  0
    1.7574   -6.5098    0.0000 C   0  0  0  0  0  0  0  0  0  0  0  0
    2.4504   -5.2559    0.0000 C   0  0  1  0  0  0  0  0  0  0  0  0
    3.1764   -5.6519    0.0000 C   0  0  0  0  0  0  0  0  0  0  0  0
    2.4504   -4.4309    0.0000 C   0  0  1  0  0  0  0  0  0  0  0  0
    7.4663   -4.0349    0.0000 C   0  0  0  0  0  0  0  0  0  0  0  0
    1.7574   -5.6519    0.0000 O   0  0  0  0  0  0  0  0  0  0  0  0
    8.1592   -4.4309    0.0000 C   0  0  0  0  0  0  0  0  0  0  0  0
    7.4663   -5.6519    0.0000 C   0  0  0  0  0  0  0  0  0  0  0  0
    6.7403   -5.2559    0.0000 C   0  0  0  0  0  0  0  0  0  0  0  0
    3.9024   -6.9058    0.0000 C   0  0  1  0  0  0  0  0  0  0  0  0
    8.1592   -5.2559    0.0000 C   0  0  0  0  0  0  0  0  0  0  0  0
    5.3213   -6.9058    0.0000 C   0  0  0  0  0  0  0  0  0  0  0  0
    1.0315   -6.9058    0.0000 O   0  0  0  0  0  0  0  0  0  0  0  0
    6.7403   -6.9058    0.0000 C   0  0  0  0  0  0  0  0  0  0  0  0
    6.0143   -6.5098    0.0000 C   0  0  0  0  0  0  0  0  0  0  0  0
    4.5953   -6.5098    0.0000 C   0  0  0  0  0  0  0  0  0  0  0  0
    3.1764   -7.3348    0.0000 O   0  0  0  0  0  0  0  0  0  0  0  0
    7.4663   -6.5098    0.0000 C   0  0  0  0  0  0  0  0  0  0  0  0
    7.4663   -3.2099    0.0000 Cl  0  0  0  0  0  0  0  0  0  0  0  0
    8.8852   -4.0019    0.0000 O   0  0  0  0  0  0  0  0  0  0  0  0
    1.7574   -4.0019    0.0000 C   0  0  0  0  0  0  0  0  0  0  0  0
    3.9024   -7.7308    0.0000 O   0  0  0  0  0  0  0  0  0  0  0  0
    6.7403   -7.7308    0.0000 C   0  0  0  0  0  0  0  0  0  0  0  0
    8.8852   -3.2099    0.0000 C   0  0  0  0  0  0  0  0  0  0  0  0
    4.5953   -8.1268    0.0000 C   0  0  0  0  0  0  0  0  0  0  0  0
    1.7574   -4.8269    0.0000 H   0  0  0  0  0  0  0  0  0  0  0  0
    6.0218   -4.0118    0.0000 N   0  0  0  0  0  0  0  0  0  0  0  0
    5.3062   -4.4194    0.0000 C   0  0  0  0  0  0  0  0  0  0  0  0
    5.3062   -5.2444    0.0000 O   0  0  0  0  0  0  0  0  0  0  0  0
    4.5905   -4.0118    0.0000 C   0  0  0  0  0  0  0  0  0  0  0  0
    3.3977   -3.2266    0.0000 C   0  0  2  0  0  0  0  0  0  0  0  0
    4.3720   -3.2266    0.0000 C   0  0  1  0  0  0  0  0  0  0  0  0
    2.5870   -3.4391    0.0000 O   0  0  0  0  0  0  0  0  0  0  0  0
    2.9804   -2.5110    0.0000 C   0  0  0  0  0  0  0  0  0  0  0  0
    3.7656   -4.6182    0.0000 H   0  0  0  0  0  0  0  0  0  0  0  0
    4.8888   -2.5111    0.0000 O   0  0  0  0  0  0  0  0  0  0  0  0
    7.7427   -1.6811    0.0000 C   0  0  0  0  0  0  0  0  0  0  0  0
    7.0282   -1.2686    0.0000 C   0  0  0  0  0  0  0  0  0  0  0  0
    6.3137   -1.6811    0.0000 N   0  0  0  0  0  0  0  0  0  0  0  0
    5.5993   -1.2686    0.0000 C   0  0  2  0  0  0  0  0  0  0  0  0
    4.8848   -1.6811    0.0000 C   0  0  0  0  0  0  0  0  0  0  0  0
    7.0258   -0.4436    0.0000 O   0  0  0  0  0  0  0  0  0  0  0  0
    6.3102   -2.5111    0.0000 C   0  0  0  0  0  0  0  0  0  0  0  0
    5.5945   -0.4436    0.0000 C   0  0  0  0  0  0  0  0  0  0  0  0
    4.1732   -1.2686    0.0000 O   0  0  0  0  0  0  0  0  0  0  0  0
    6.0218   -3.1868    0.0000 C   0  0  0  0  0  0  0  0  0  0  0  0
    8.4594   -1.2706    0.0000 C   0  0  0  0  0  0  0  0  0  0  0  0
    9.1751   -1.6880    0.0000 S   0  0  0  0  0  0  0  0  0  0  0  0
  8  1  1  0  0  0  0
  7  2  1  0  0  0  0
 14  2  1  0  0  0  0
  2 21  1  1  0  0  0
  3  2  1  0  0  0  0
  5  3  1  0  0  0  0
  9  4  2  0  0  0  0
 13  4  1  0  0  0  0
 10  5  1  0  0  0  0
 17  5  2  0  0  0  0
  8  6  1  0  0  0  0
  7  6  1  0  0  0  0
 10  6  1  0  0  0  0
  6 30  1  1  0  0  0
  8 25  1  1  0  0  0
 11  9  1  0  0  0  0
 23  9  1  0  0  0  0
 24 11  1  0  0  0  0
 15 11  2  0  0  0  0
 13 12  2  0  0  0  0
 15 12  1  0  0  0  0
 22 12  1  0  0  0  0
 20 14  1  0  0  0  0
 14 26  1  1  0  0  0
 20 16  2  0  0  0  0
 19 16  1  0  0  0  0
 22 18  1  0  0  0  0
 27 18  1  0  0  0  0
 19 18  2  0  0  0  0
 28 24  1  0  0  0  0
 29 26  1  0  0  0  0
  4 31  1  0  0  0  0
 31 32  1  0  0  0  0
 32 33  2  0  0  0  0
 32 34  1  0  0  0  0
 35 36  1  0  0  0  0
 34 36  1  0  0  0  0
  1 37  1  1  0  0  0
 35  1  1  0  0  0  0
 35 37  1  1  0  0  0
 35 38  1  0  0  0  0
  1 39  1  0  0  0  0
 42 41  1  0  0  0  0
 43 42  1  0  0  0  0
 44 43  1  0  0  0  0
 45 44  1  0  0  0  0
 42 46  2  0  0  0  0
 43 47  1  0  0  0  0
 44 48  1  6  0  0  0
 45 40  1  0  0  0  0
 45 49  2  0  0  0  0
 36 40  1  1  0  0  0
 31 50  1  0  0  0  0
 41 51  1  0  0  0  0
 51 52  1  0  0  0  0
M  END
